Version 4
SHEET 1 1856 680
WIRE 352 -432 112 -432
WIRE 720 -432 592 -432
WIRE 352 -352 304 -352
WIRE 656 -352 592 -352
WIRE 720 -352 656 -352
WIRE 656 -336 656 -352
WIRE 112 -208 112 -432
WIRE 208 -208 192 -208
WIRE 224 -208 208 -208
WIRE 304 -208 304 -352
WIRE 208 -160 208 -208
WIRE 112 -112 112 -208
WIRE 160 -112 112 -112
WIRE 304 -112 304 -208
WIRE 304 -112 272 -112
WIRE 48 -32 -96 -32
WIRE 48 0 48 -32
WIRE 160 0 160 -112
WIRE 272 0 272 -112
WIRE 576 16 496 16
WIRE 736 16 576 16
WIRE -528 32 -576 32
WIRE -416 32 -528 32
WIRE -96 32 -96 -32
WIRE -96 32 -416 32
WIRE 848 64 800 64
WIRE 944 64 848 64
WIRE 1088 64 1024 64
WIRE -32 80 -64 80
WIRE -112 96 -208 96
WIRE -528 112 -528 96
WIRE -752 128 -752 64
WIRE 496 128 496 80
WIRE 496 128 352 128
WIRE 800 128 800 64
WIRE 800 128 496 128
WIRE 1088 128 1088 64
WIRE 1216 128 1088 128
WIRE 1584 128 1456 128
WIRE -416 160 -416 112
WIRE -416 160 -528 160
WIRE -288 160 -288 96
WIRE -288 160 -416 160
WIRE -64 160 -64 80
WIRE -32 160 -64 160
WIRE 736 160 736 96
WIRE 736 160 624 160
WIRE 848 160 848 144
WIRE 848 160 736 160
WIRE -528 192 -528 160
WIRE -416 192 -416 160
WIRE 848 192 848 160
WIRE 1216 208 1088 208
WIRE 1520 208 1456 208
WIRE 1584 208 1520 208
WIRE -288 224 -288 160
WIRE -176 224 -208 224
WIRE 1520 224 1520 208
WIRE -64 240 -64 160
WIRE -32 240 -64 240
WIRE 624 240 624 224
WIRE -752 256 -752 208
WIRE -528 272 -528 256
WIRE -416 272 -416 256
WIRE 576 272 576 80
WIRE 576 272 352 272
WIRE 800 272 576 272
WIRE 496 288 496 128
WIRE 800 288 800 272
WIRE 848 288 848 272
WIRE 848 288 800 288
WIRE 944 288 848 288
WIRE 1088 288 1088 208
WIRE 1088 288 1024 288
WIRE 736 304 736 160
WIRE -64 320 -64 240
WIRE -32 320 -64 320
WIRE -64 352 -64 320
WIRE 496 384 496 352
WIRE 576 384 576 336
WIRE 576 384 496 384
WIRE 736 384 576 384
WIRE -112 416 -112 96
WIRE 48 416 48 400
WIRE 48 416 -112 416
WIRE 160 416 160 400
WIRE 576 416 576 384
WIRE -176 480 -176 224
WIRE 272 480 272 400
WIRE 272 480 -176 480
FLAG -752 64 15V
FLAG -752 256 0
FLAG 208 -160 15V
FLAG 160 416 0
FLAG 576 416 0
FLAG 624 240 0
FLAG -528 112 0
FLAG -528 272 0
FLAG -416 272 0
FLAG -576 32 15V
FLAG -64 352 0
FLAG 1520 224 0
FLAG 656 -336 0
SYMBOL PowerProducts\\LT2940 160 160 R0
SYMATTR InstName U1
SYMBOL voltage -752 112 R0
WINDOW 123 0 0 Left 2
WINDOW 39 0 0 Left 2
SYMATTR InstName V1
SYMATTR Value 15
SYMBOL cap -544 32 R0
SYMATTR InstName C1
SYMATTR Value 47µ
SYMATTR SpiceLine V=25
SYMBOL cap -544 192 R0
SYMATTR InstName C2
SYMATTR Value 100n
SYMBOL cap 608 160 R0
SYMATTR InstName C3
SYMATTR Value 100n
SYMBOL res -304 112 R270
WINDOW 0 32 56 VTop 2
WINDOW 3 0 56 VBottom 2
SYMATTR InstName R1
SYMATTR Value 4,22k
SYMBOL res 720 0 R0
SYMATTR InstName R2
SYMATTR Value 10k
SYMBOL res 720 288 R0
SYMATTR InstName R3
SYMATTR Value 10k
SYMBOL res 832 176 R0
SYMATTR InstName R4
SYMATTR Value 68,1
SYMBOL res 832 48 R0
SYMATTR InstName R5
SYMATTR Value 68,1
SYMBOL res 1040 48 R90
WINDOW 0 0 56 VBottom 2
WINDOW 3 32 56 VTop 2
SYMATTR InstName R6
SYMATTR Value 200
SYMATTR SpiceLine tol=1
SYMBOL res 1040 272 R90
WINDOW 0 0 56 VBottom 2
WINDOW 3 32 56 VTop 2
SYMATTR InstName R7
SYMATTR Value 200
SYMATTR SpiceLine tol=1
SYMBOL res 208 -224 R90
WINDOW 0 0 56 VBottom 2
WINDOW 3 32 56 VTop 2
SYMATTR InstName R8
SYMATTR Value 4,99
SYMBOL res 320 -224 R90
WINDOW 0 0 56 VBottom 2
WINDOW 3 32 56 VTop 2
SYMATTR InstName R9
SYMATTR Value 4,99
SYMBOL res -192 208 R90
WINDOW 0 0 56 VBottom 2
WINDOW 3 32 56 VTop 2
SYMATTR InstName R10
SYMATTR Value 4,99k
SYMBOL res -432 16 R0
SYMATTR InstName R11
SYMATTR Value 1k
SYMBOL zener -432 256 M180
WINDOW 0 24 64 Left 2
WINDOW 3 24 0 Left 2
SYMATTR InstName D1
SYMATTR Value BZX84C6V2L
SYMBOL diode 512 80 R180
WINDOW 0 24 64 Left 2
WINDOW 3 24 0 Left 2
SYMATTR InstName D2
SYMATTR Value 1N4148
SYMBOL diode 592 80 R180
WINDOW 0 24 64 Left 2
WINDOW 3 24 0 Left 2
SYMATTR InstName D3
SYMATTR Value 1N4148
SYMBOL diode 512 352 R180
WINDOW 0 24 64 Left 2
WINDOW 3 24 0 Left 2
SYMATTR InstName D4
SYMATTR Value 1N4148
SYMBOL diode 592 336 R180
WINDOW 0 24 64 Left 2
WINDOW 3 24 0 Left 2
SYMATTR InstName D5
SYMATTR Value 1N4148
SYMBOL ind2 1472 224 R180
WINDOW 0 36 80 Left 2
WINDOW 3 36 40 Left 2
SYMATTR InstName L1
SYMATTR Value 1364200µ
SYMATTR SpiceLine Rser=100
SYMBOL ind2 1200 224 M180
WINDOW 0 36 80 Left 2
WINDOW 3 36 40 Left 2
SYMATTR InstName L2
SYMATTR Value 11660µ
SYMATTR SpiceLine Rser=100
SYMBOL Misc\\signal 1584 112 M0
WINDOW 3 -60 131 Left 2
WINDOW 123 0 0 Left 2
WINDOW 39 0 0 Left 2
SYMATTR InstName V4
SYMATTR Value SINE(0 117 60)
SYMBOL ind2 608 -336 R180
WINDOW 0 36 80 Left 2
WINDOW 3 36 40 Left 2
SYMATTR InstName L3
SYMATTR Value 1µ
SYMATTR SpiceLine Rser=100
SYMBOL ind2 336 -336 M180
WINDOW 0 36 80 Left 2
WINDOW 3 36 40 Left 2
SYMATTR InstName L4
SYMATTR Value 22361µ
SYMATTR SpiceLine Rser=100
SYMBOL Misc\\signal 720 -448 M0
WINDOW 3 -60 131 Left 2
WINDOW 123 0 0 Left 2
WINDOW 39 0 0 Left 2
SYMATTR InstName V2
SYMATTR Value SINE(0 117 60)
TEXT -786 440 Left 2 !.tran 0 1s 0s
TEXT 1400 240 Right 2 !K1 L1 L2 1.
TEXT 1216 64 Left 2 ;Transformador 1168:108\n110V - 10.8V
TEXT 536 -320 Right 2 !K2 L3 L4 1.
TEXT 352 -496 Left 2 ;Transformador \n110V - 200m
LINE Normal 1488 256 1488 48 2
LINE Normal 1200 256 1488 256 2
LINE Normal 1200 48 1200 256 2
LINE Normal 1488 48 1200 48 2
LINE Normal 624 -304 624 -512 2
LINE Normal 336 -304 624 -304 2
LINE Normal 336 -512 336 -304 2
LINE Normal 624 -512 336 -512 2
